! Users should add all user specific namelist changes below in the form of 
! namelist_var = new_namelist_value 
 
 nhtfrq =  0,
 mfilt  = 1, 
 avgflag_pertape = 'A',
 fexcl1 = 'CFAD_SR532_CAL','ANSNOW','ANRAIN','AQSNOW','AQRAIN','SNOWQM'
 fincl1 = 'RHREFHT','DF_O3','AQSO4_O3','AQSO4_H2O2','TREFHTMN:M','TREFHTMX:X','FLUT','PRECT','PRECC','U200','U850','TMQ','OMEGA500','IEFLX'
 clubb_c14 = 1.17D0

!co2 1pct
 bndtvghg = '/compyfs/inputdata/atm/cam/ggas/GHG_CMIP6_1pctCO2_c20180216.nc'
 scenario_ghg = 'RAMPED'
 ghg_yearStart_data = 1
 ghg_yearStart_model = 1850

! chlorine
 linoz_data_type                = 'CYCLICAL'
 linoz_data_cycle_yr            = 1850 
 chlorine_loading_fixed_ymd     = 18500101
 chlorine_loading_type          = 'FIXED'   

! for trace gases
 ext_frc_cycle_yr               = 1850
 ext_frc_type                   = 'CYCLICAL'


 srf_emis_type                  = 'CYCLICAL' 
 srf_emis_cycle_yr              = 1850
 srf_emis_specifier             = 'DMS       -> /compyfs/inputdata/atm/cam/chem/trop_mozart_aero/emis/DMSflux.1850.1deg_latlon_conserv.POPmonthlyClimFromACES4BGC_c20160416.nc',
         'SO2       -> /compyfs/inputdata/atm/cam/chem/trop_mozart_aero/emis/DECK_ne30/cmip6_mam4_so2_surf_1850-2014_c170525.nc',
         'bc_a4     -> /compyfs/inputdata/atm/cam/chem/trop_mozart_aero/emis/DECK_ne30/cmip6_mam4_bc_a4_surf_1850-2014_c170525.nc',
         'num_a1    -> /compyfs/inputdata/atm/cam/chem/trop_mozart_aero/emis/DECK_ne30/cmip6_mam4_num_a1_surf_1850-2014_c170525.nc',
         'num_a2    -> /compyfs/inputdata/atm/cam/chem/trop_mozart_aero/emis/DECK_ne30/cmip6_mam4_num_a2_surf_1850-2014_c170525.nc',
         'num_a4    -> /compyfs/inputdata/atm/cam/chem/trop_mozart_aero/emis/DECK_ne30/cmip6_mam4_num_a4_surf_1850-2014_c170525.nc',
         'pom_a4    -> /compyfs/inputdata/atm/cam/chem/trop_mozart_aero/emis/DECK_ne30/cmip6_mam4_pom_a4_surf_1850-2014_c170525.nc',
         'so4_a1    -> /compyfs/inputdata/atm/cam/chem/trop_mozart_aero/emis/DECK_ne30/cmip6_mam4_so4_a1_surf_1850-2014_c170525.nc',
         'so4_a2    -> /compyfs/inputdata/atm/cam/chem/trop_mozart_aero/emis/DECK_ne30/cmip6_mam4_so4_a2_surf_1850-2014_c170525.nc'



 tracer_cnst_cycle_yr           = 1849  
 tracer_cnst_type               = 'CYCLICAL'  

 prescribed_ozone_cycle_yr      = 1850                                  
 prescribed_ozone_datapath      = '/compyfs/inputdata/atm/cam/ozone'  
 prescribed_ozone_file          = 'ozone_1.9x2.5_L26_1850clim_c090420.nc'     
 prescribed_ozone_name          = 'O3'                                        
 prescribed_ozone_type          = 'CYCLICAL'                  



 prescribed_volcaero_cycle_yr   = 1                                   
 prescribed_volcaero_file       = 'CMIP_DOE-ACME_radiation_average_1850-2014_v3_c20171204.nc'   
 prescribed_volcaero_filetype   = 'VOLC_CMIP6'                                                     
 prescribed_volcaero_type       = 'CYCLICAL'    

 solar_data_type                = 'FIXED'                                                        
 solar_data_ymd                 = 18500101             
 solar_data_file                = '/compyfs/inputdata/atm/cam/solar/Solar_1850control_input4MIPS_c20171101.nc' 


 co2vmr_rad         = 284.317000e-6

